34
Coordinates from ORCA-job BMImBCN4
  H   -5.08755238593160      0.62653750074603     -1.02101406868093
  C   -4.06136627762089      0.98742294180609     -1.00465541618423
  C   -3.17520875529905      0.06666929565665     -0.17412941669699
  H   -3.70540708477409      1.04334824611718     -2.03092346261973
  H   -4.06975283243729      1.99574304226134     -0.59095657207046
  C   -1.72352936174301      0.53518246216834     -0.14976058102514
  H   -3.20871236952215     -0.94414432299262     -0.58280238514096
  H   -3.55564145346212      0.00428379123794      0.84835308659904
  C   -0.87993194755006     -0.35026887098153      0.75300097663219
  H   -1.67653350326537      1.57025354255647      0.19406286659480
  H   -1.31629047197583      0.51659802791231     -1.15930441720915
  N   0.54999554601520     -0.00988067108388      0.67494250886624
  H   -0.96243283185648     -1.39043015127526      0.45218792911945
  H   -1.18462280642093     -0.26103040922076      1.79400657132463
  C   1.51085338404730     -0.83256617051882      0.25602915089319
  C   1.11398267556189      1.21343301339285      0.96108433429635
  N   2.67199692609281     -0.17884487628564      0.27810338826704
  H   1.34991994751010     -1.83868522152101     -0.08538784506247
  C   2.44465500591141      1.10818758044024      0.70502964769317
  H   0.53030862485755      2.04327658101792      1.30619791991497
  C   3.93191638522003     -0.68541439282012     -0.25304920917331
  H   3.23217730932875      1.83274884697981      0.76707008214258
  H   4.73246115982155     -0.45332923603220      0.44118418745619
  H   3.85264082949158     -1.76013652275634     -0.37000607219976
  H   4.10811758051754     -0.22293695267859     -1.21900644044628
  B   0.19899313762599     -0.95388285858933     -3.58583645160681
  C   -0.08789060388910     -2.01785283251894     -2.43315832389875
  C   1.31786813484808      0.01938611133389     -3.00010463120455
  N   2.12829968327046      0.68829432821407     -2.51009998900688
  N   -0.24537194140506     -2.72032868745966     -1.52377237379513
  C   0.72947557389080     -1.67592154674096     -4.88336332424266
  C   -1.12217982117733     -0.12556134698580     -3.85257799013091
  N   1.14114325565600     -2.21584341224377     -5.82169545036419
  N   -2.09317071133669      0.49220317086406     -3.98650822904061
