40
Coordinates from ORCA-job BMImTFSI
  H   -3.69521982616071     -0.31905597953395      2.44377948921626
  C   -2.71486709971269     -0.70355194468055      2.17062141085697
  C   -2.24608258712660     -0.12768899359066      0.83977537490795
  H   -2.01749974616142     -0.44334988672790      2.96523322451979
  H   -2.78100887757171     -1.79030690069331      2.12743197063637
  C   -0.85879557898665     -0.63679599840868      0.46951747296004
  H   -2.20800976577901      0.96018659140823      0.90633359662974
  H   -2.96236344357573     -0.37524943220436      0.05289312379314
  C   -0.36606759384875     -0.02838008996883     -0.83510880919105
  H   -0.86777072023501     -1.72595594592700      0.39284100548500
  H   -0.15587901683208     -0.37017851965006      1.25545126968537
  N   1.07008426968575     -0.27992209835113     -1.02531671606962
  H   -0.48440631063275      1.05012668514324     -0.80937719405002
  H   -0.89462143525338     -0.42362126396621     -1.70047678684137
  C   2.01884806622210      0.65358106220057     -0.96277177292184
  C   1.67719223410869     -1.51325442522009     -1.11936870810553
  N   3.20980022549172      0.05999248151091     -1.01926619775556
  H   1.84930994662648      1.70527631206895     -0.84213801895452
  C   3.01909955895147     -1.29817095415415     -1.11507149480930
  H   1.11305354059409     -2.42359895639546     -1.15725003356953
  C   4.49469273099487      0.73722816980836     -0.86887303479765
  H   3.84128617170809     -1.98526390318063     -1.13243769809707
  H   5.03540153586517      0.71342795602457     -1.80995654898375
  H   4.30546488598289      1.75780236262004     -0.55741188980727
  H   5.04861674811066      0.23390992862134     -0.08482830887060
  S   2.98290759260487     -0.04360020572959      2.86259707334713
  O   3.68783244095153     -0.69497322692361      1.78102094107032
  O   3.74555740827804      0.64066267897667      3.86696615397734
  N   1.67119225161766      0.71035735885817      2.36284436127601
  S   1.63209388721987      2.19382430981552      1.85622618546172
  O   2.87197708126215      2.67436627929063      1.28662966933034
  O   0.42383731116508      2.37528063441316      1.08320056086770
  C   2.10542167227200     -1.42131885889216      3.73399353073160
  F   1.35455519659838     -2.13120745987794      2.88314530752919
  F   3.01489749942133     -2.23574579103337      4.26932701590100
  F   1.32221747524216     -0.95718618627231      4.70217973741753
  C   1.34889063941971      3.24272564232828      3.35892634706736
  F   1.11105393909515      4.49727133193299      2.97042118874010
  F   2.40582684761072      3.23406619926827      4.15891361132916
  F   0.28883184477585      2.79769803709203      4.03392859008750
