32
Coordinates from ORCA-job BMImPF6
  H   -5.05000851032730     -1.41149171722135     -0.12444834702811
  C   -4.09704340483736     -1.12048233974246     -0.56138271350916
  C   -3.12586162693459     -0.63606497503464      0.50803508301461
  H   -3.68743580891634     -1.98253206729892     -1.08452865596551
  H   -4.29090424190389     -0.34110969163146     -1.29788619607948
  C   -1.78284636296767     -0.23241703751276     -0.08876295793853
  H   -2.95970266221941     -1.43343871891769      1.23371435815975
  H   -3.56063134806513      0.20443610289623      1.05446165216761
  C   -0.80870037558018      0.19927215659545      0.99703622126463
  H   -1.92526225027069      0.58134271890610     -0.80299636461119
  H   -1.35148761447525     -1.07170623712308     -0.62709437437138
  N   0.54643204952419      0.39557504186043      0.46573218260191
  H   -0.72882748734612     -0.57364358823088      1.75494390792882
  H   -1.11880661092845      1.12710749402793      1.47484372322630
  C   1.58856872515006     -0.38388340929420      0.74184360884563
  C   0.91312105156274      1.28636435993842     -0.51852470774340
  N   2.61746482937529     -0.00964494149997     -0.01544162704862
  H   1.57414536509071     -1.23233104040415      1.39625837439013
  C   2.21281386913901      1.03079738092348     -0.82145017573552
  H   0.22992794087703      2.00992534633940     -0.91616781559853
  C   3.88821179061961     -0.72009316853144     -0.11483913089777
  H   2.87315090445203      1.48845041521678     -1.53126542999677
  H   4.68336102379815      0.00361708767250     -0.25910386824919
  H   4.05292479568625     -1.27409833659705      0.80053777254271
  H   3.83928135994426     -1.42012188071278     -0.94172793873834
  P   0.74834007114789     -3.43538743553257     -0.65323517525252
  F   1.51825746055210     -4.01532787406929     -1.92548064454378
  F   0.79140321313556     -1.93508854098053     -1.32636919345625
  F   -0.67976199137003     -3.68938875281080     -1.33142630231843
  F   2.18422382855272     -3.09642458533660      0.06982310701582
  F   0.72476122607364     -4.86223021161449      0.05590915479937
  F   -0.00035420853883     -2.76907555427966      0.65191947312520
