32
Coordinates from ORCA-job BMImCCN3
  H   -4.98862701630802      0.24636359510548     -1.66644339201715
  C   -4.00289104805160      0.69453730026088     -1.56122262562007
  C   -3.12673824597734     -0.13006661697236     -0.62615628558694
  H   -3.55088239312169      0.75502422935049     -2.54916128103139
  H   -4.13597566811785      1.70716550229539     -1.18034469694967
  C   -1.73939876193252      0.48285791673511     -0.46098942291088
  H   -3.01619867599996     -1.13893094729091     -1.02580012771878
  H   -3.60541970277764     -0.22868882435457      0.35108110588539
  C   -0.88588932720347     -0.33862111937189      0.49264512245045
  H   -1.83563561219045      1.50575300173148     -0.09150305219691
  H   -1.25229045235981      0.53067876980798     -1.43263707879085
  N   0.53359786005373      0.05318394112644      0.44128510203327
  H   -0.91231590092294     -1.39108962684863      0.22317369452474
  H   -1.22701053134594     -0.23274364772157      1.52103295101030
  C   1.55059276626672     -0.80049537560104      0.32311765605140
  C   1.03549188976498      1.33555602481258      0.43933530038117
  N   2.68616776807341     -0.10561809795245      0.25577535856921
  H   1.44825712088244     -1.86728042497557      0.23467881880857
  C   2.38577073245701      1.23479409697994      0.31601742062100
  H   0.40188890297370      2.19668164058534      0.50696169037513
  C   4.00510680190660     -0.66775834994761     -0.01619463587226
  H   3.14340050807628      1.98924550790945      0.24022062462487
  H   4.72352063548563     -0.24346090448542      0.67739845764994
  H   3.95737777792490     -1.74206836515993      0.12074730050672
  H   4.26665401203813     -0.43929480464376     -1.04500357545036
  C   0.47075775697298     -1.16758260417049     -2.92658749439679
  C   0.30443625071419     -2.28057823120965     -2.09276705721180
  C   1.71941731425775     -0.52529353549383     -2.91858998896641
  N   2.76307319147810     -0.00648327541804     -2.84554067337693
  N   0.20880350021017     -3.15566112693306     -1.32279368427823
  C   -0.62416391271871     -0.62439762838054     -3.62321768372462
  N   -1.54849754050881     -0.15830801976922     -4.15841784739210
