33
Coordinates from ORCA-job BMImTFMS
  C   0.03527427155721     -0.03749028219905      0.02530460820204
  N   0.05509832002308      0.02537873125460      1.35636801767037
  C   1.35715777475163      0.19268163036787      1.76665246967512
  C   2.12687940498400      0.23318960038878      0.64646912930643
  N   1.27959066270187      0.09272459674586     -0.42905053926513
  C   -1.10941597481935     -0.18318741275831      2.21400251519833
  C   1.67648420470388     -0.10508353311489     -1.83098556115759
  C   2.62320654379431     -1.28786748178456     -1.97355738351204
  C   2.75127933317123     -1.71048518161390     -3.43184162006731
  C   3.71489850320230     -2.87797612942207     -3.60161435733323
  H   3.78066911835941     -3.18652286131255     -4.64288578569907
  H   4.71793330936316     -2.61328360124470     -3.26732233776750
  H   3.38246194391447     -3.73496955823553     -3.01825408052437
  H   3.08263142173174     -0.86530751781157     -4.04023559602303
  H   1.76201850012507     -1.99646346966095     -3.78925499957564
  H   2.22506944426499     -2.11454853734194     -1.38858917652515
  H   3.60588895791382     -1.03130984861651     -1.57118878042386
  H   2.11875060378384      0.82112273183722     -2.19345462102347
  H   0.75966086371684     -0.30590182301352     -2.37543094153149
  H   -0.83191184663767     -0.23560621612447     -0.57431121692609
  H   3.18744099229576      0.32879905868442      0.52823844515131
  H   1.62162951116179      0.25381572279409      2.80364237674908
  H   -1.70576808492654     -0.97880443050051      1.77641214992000
  H   -1.68087715253871      0.73622729482292      2.29766171030660
  H   -0.75663019932339     -0.48568313732671      3.19306788080481
  S   -0.62391705227337     -2.95769029461652     -0.58458693469496
  C   -1.04584844983047     -4.72907501076939     -0.88892060141590
  O   0.55114815095009     -3.00823017326127      0.27212705380055
  O   -1.81655057072440     -2.41803655433095      0.05806305045658
  O   -0.37508523054537     -2.42412711027511     -1.91744226691741
  F   -1.30551644245266     -5.36154143573604      0.25996962180080
  F   -0.03089417607852     -5.36167318205062     -1.49057279553568
  F   -2.12169665632005     -4.83472458377405     -1.67428943312312
