39
Coordinates from ORCA-job BMPyrBCN4
  C   1.54604827221705      1.26553809506972      2.23382556559095
  H   1.36149344389225      2.12945631072814      2.86440054829641
  H   2.58059241453039      0.95491151329424      2.37242782205982
  C   1.28207989203928      1.59552495249791      0.77838674558052
  H   1.43128616545362      0.72082818834395      0.14367174368000
  H   0.25616852874958      1.93021584697272      0.63639267341129
  C   2.23143816459553      2.70855294212438      0.32806998578574
  H   2.13453324293859      3.56079954234541      0.99886618311389
  H   3.26268519983205      2.35720961154899      0.40438144722483
  C   1.93908553560711      3.16274478931445     -1.09565104811951
  H   0.92679974344532      3.55527039461669     -1.17174202187947
  H   2.62257935062756      3.95321048468248     -1.39530302026710
  H   2.03970290614548      2.34026602255987     -1.80413328341852
  N   0.70964002374557      0.14658067552740      2.82748598556176
  C   0.84882875740070     -1.14346355314563      2.02965658219848
  C   -0.47321280356716     -1.32074122963209      1.30359451381675
  C   -1.47656296257603     -0.77126091939002      2.31575669727154
  C   -0.78531627877537      0.47980506272701      2.82437534768597
  H   1.72278372201728     -1.06857257750646      1.39297604358485
  H   1.00364433116132     -1.94398894867702      2.74685647674357
  H   -0.64408584129244     -2.36173897330530      1.04454075788366
  H   -0.49700351273389     -0.73095018558330      0.39006248400865
  H   -1.64388309652236     -1.48937791340320      3.11816060255309
  H   -2.43732752515117     -0.52324042527582      1.87498103690516
  H   -1.06199847682585      0.79839611546705      3.82087931919003
  H   -0.94212638012285      1.30473902518867      2.14409158395639
  H   2.20275564314333     -0.39643464342933      4.21591738990643
  C   1.17003728673749     -0.06224864514650      4.23393658834716
  H   1.07466843363062      0.87824340112324      4.76680788596094
  H   0.54305885009758     -0.82027507868290      4.69229401880496
  B   -1.02366534842059      4.72902660659654      2.83329444438148
  C   -0.43133441635310      3.78326731132178      3.97490410045711
  C   -1.73301785825550      3.75384347782557      1.79229435661520
  N   -2.16689673051642      2.96343420059860      1.06271838350915
  N   0.01115600497466      3.02002919924049      4.72748752275593
  C   -2.04372694177351      5.76417323588131      3.44168613054961
  C   0.19101469496127      5.43536492014481      2.10116770398805
  N   -2.79832054641428      6.51395222810967      3.89962969747051
  N   1.10605811135685      5.88191893932644      1.54773100483473
