31
Coordinates from ORCA-job BMPyrBr
  C   -0.30390331989078      1.59869131600176      1.83892698247089
  H   -0.22927412365560      2.64823336612079      1.55998517489951
  H   -1.29107653451081      1.43781114226894      2.26849878962910
  C   0.76705127717001      1.25267237873964      2.85466132967492
  H   0.70124324187218      0.20247368690871      3.13337815812310
  H   1.75792574919601      1.41382908714533      2.43372862566888
  C   0.60917928128331      2.11316593320752      4.10709632748225
  H   0.66918953312681      3.16783432903335      3.83238280845362
  H   -0.38577230297931      1.95992357926612      4.52886216285044
  C   1.66614996549482      1.79564929358220      5.15736376075140
  H   2.66827719209298      1.96865985623845      4.76764221087962
  H   1.54069937149286      2.41601340270378      6.04185332415448
  H   1.60606899006717      0.75377521422743      5.46890154488872
  N   -0.28730977151993      0.82747048438742      0.54933821302006
  C   -0.42369225577585     -0.66916571028578      0.77470514548090
  C   0.98730379252047     -1.24670030190606      0.81196440110670
  C   1.91395196260688     -0.18097487981371      0.18783493050647
  C   1.02233497565529      0.99254412289597     -0.20351775144494
  H   -1.00763768149797     -0.81934058781941      1.67877166191244
  H   -0.94101929585350     -1.05228193482392     -0.10037480037251
  H   0.99767320991540     -2.15274478460136      0.21500646183863
  H   1.29959893494105     -1.49093216820607      1.82370482668012
  H   2.38142014946646     -0.56661140845823     -0.71230989728553
  H   2.69209035331262      0.11624969089367      0.88557981606601
  H   0.76862430876697      0.90991145472252     -1.25660464424551
  H   1.42246333332312      1.97487259569372      0.03266064071616
  H   -2.34933098953251      1.15186019513250      0.24447495393988
  C   -1.42235621689655      1.31796168953971     -0.29591679251355
  H   -1.28174820505775      2.37929914567905     -0.47710655074128
  H   -1.40155029739382      0.75177567753859     -1.22758436141677
  Br  -0.24260462774004     -1.06698586601261     -2.60316745317421
