37
Coordinates from ORCA-job BMPyrCCN3
  C   1.50705446510346      1.30256984676568      2.20910993710666
  H   1.29312272508571      2.17560471938310      2.81628757824631
  H   2.54489994847869      1.01500341811148      2.37153170515876
  C   1.25834299708629      1.59991188732836      0.74441294223135
  H   1.44718772869553      0.72022033298594      0.12668018433069
  H   0.22563721140827      1.90089572291943      0.58006191137501
  C   2.17445813477668      2.73865136734331      0.28984446919532
  H   2.03948746361354      3.59598878875848      0.94804359365891
  H   3.21705303273630      2.42729826435560      0.38375495648034
  C   1.88297902663525      3.15939067188315     -1.14463509184791
  H   0.85577256581801      3.50692088370767     -1.23994243164968
  H   2.53792966679565      3.97196818309807     -1.44935786616636
  H   2.02595746219449      2.33093430194115     -1.83870564541435
  N   0.68314720537285      0.17850228766357      2.80878721962483
  C   0.88277234006521     -1.12845735505757      2.05155535161602
  C   -0.42532099769735     -1.38534180564983      1.32340314902365
  C   -1.45808976888660     -0.83334306477946      2.30401099996642
  C   -0.82011515824448      0.46624155992647      2.75616758584813
  H   1.75533811023130     -1.03468348165334      1.41575788601835
  H   1.06914977843564     -1.89933837090195      2.79304713288044
  H   -0.55427736424281     -2.44143204342340      1.10409468429490
  H   -0.46193200228601     -0.83264616992996      0.38707952996122
  H   -1.60111400992246     -1.52009446857838      3.13804246300634
  H   -2.42565858304266     -0.64670265455132      1.84809330914865
  H   -1.12569887397963      0.83297868593221      3.72777183630178
  H   -0.98753710779012      1.24617504987501      2.02574637962028
  H   2.14899248031994     -0.27637083796568      4.25646000829889
  C   1.10503196764413      0.02086319060037      4.23474568842045
  H   0.95541821483238      0.97036111942137      4.74092577167815
  H   0.49086295950056     -0.74871082103760      4.69132075630565
  C   -0.51316750174984      4.22260496850880      2.63151697135676
  C   -0.35128761243827      3.60395814028357      3.87732068853397
  C   -1.43570089445350      3.66028022782340      1.73494573184624
  N   -2.16637327558087      3.10773846942249      1.00987745783686
  N   -0.20063905109698      3.00348791797112      4.86976246572576
  C   0.35312271705728      5.25481171751849      2.22213458312385
  N   1.09482399952441      6.07911935000019      1.86496610685735
