31
Coordinates from ORCA-job BMPyrI
  C   -0.24286179681062      1.76243532930342      2.21832707223719
  H   -0.14360143397390      2.81737820805406      1.96907925797414
  H   -1.21726353049010      1.61949884598447      2.68198008327600
  C   0.85651980663486      1.34791786897830      3.17632588487003
  H   0.76330776433983      0.29306836834584      3.42886735534103
  H   1.83362107158490      1.48428812395662      2.71610922916240
  C   0.78510198237008      2.17901322368901      4.45635549106880
  H   0.86576593018042      3.23819503072074      4.20526132088665
  H   -0.19338825394257      2.04548380313230      4.92112582011802
  C   1.87977096090973      1.80234153914926      5.44667723133988
  H   2.86733974440424      1.95643542476678      5.01431273512740
  H   1.81478505473352      2.40232896104399      6.35148651769204
  H   1.80250246744337      0.75477609066167      5.73438416272793
  N   -0.30130664751774      1.03294631162154      0.90567579371541
  C   -0.48581186631525     -0.46394104821241      1.09220523340882
  C   0.89899083953024     -1.09818011731020      1.04149575855757
  C   1.84037361740194     -0.04904336281233      0.41341028848649
  C   0.98666077347214      1.17681242668587      0.11195550591194
  H   -1.03101626530269     -0.62128254858935      2.01884588168937
  H   -1.06409517845354     -0.80272747883284      0.23803377829255
  H   0.84429265167233     -1.97863196672206      0.40891491121077
  H   1.24543490302583     -1.39399587806644      2.02801102946443
  H   2.24237215525830     -0.42005926858696     -0.52418596327327
  H   2.66421235073499      0.18650537098408      1.08156395777762
  H   0.69679687456436      1.16084649642165     -0.93413819827204
  H   1.43857803708045      2.12884316439695      0.37663349737526
  H   -2.36041083149985      1.43679071627781      0.68178385930485
  C   -1.44580291031091      1.58921749341302      0.11719105081286
  H   -1.27464749803001      2.64995445603796     -0.03841548433565
  H   -1.47654121478378      1.05373054944231     -0.83088388723909
  I   -0.37536755791057     -0.91491313393505     -2.46377117470950
