35
Coordinates from ORCA-job BMPyrBF4
  C   -0.38512525525528      1.27881923292287      1.59768130185656
  H   -0.68144760604371      1.69298944282975      2.56109199938496
  H   -1.06653309472213      1.64078246729081      0.83551979103848
  C   -0.39948014378427     -0.23488591386744      1.62977991866368
  H   -0.05412209547169     -0.62896344535717      0.67705659408620
  H   0.24657479728460     -0.63332088467825      2.41497115867488
  C   -1.83106168746655     -0.72296176911963      1.85129603241895
  H   -2.21150735931999     -0.32879234479765      2.79596393480761
  H   -2.45795420806675     -0.31499527051259      1.05932205121639
  C   -1.92234893499639     -2.24301005759780      1.85150089710733
  H   -1.30562127731894     -2.67708904840565      2.63854820730824
  H   -2.94640576101622     -2.57379278898424      2.01005019995843
  H   -1.58613295314373     -2.64878461597966      0.89862250704984
  N   0.95799475437158      1.91576414392246      1.29119217724417
  C   1.64230059112114      1.30600549349066      0.06138664721671
  C   2.80071660101301      0.49797879389118      0.61202603108577
  C   3.25042057202157      1.33229684826805      1.81049480597033
  C   1.92675843378308      1.72242406354638      2.44546130440908
  H   0.90319471366775      0.77427590519046     -0.52194123770524
  H   1.99109990785914      2.13792147097340     -0.53911328211516
  H   3.57745579011915      0.36957396908064     -0.13613617856284
  H   2.47427733860107     -0.48892834528315      0.93519875611126
  H   3.79572879621495      2.21414300095932      1.47664722259674
  H   3.88122236182907      0.79075721364524      2.50990724584613
  H   1.94795827444975      2.63314839947215      3.03408278188668
  H   1.54342048700898      0.91551152312320      3.05985821823243
  H   0.13599058089490      3.47725794835603      0.14033097007385
  C   0.71831974236457      3.37322418751319      1.04894493261410
  H   0.17653849048431      3.77786182820360      1.89796404979087
  H   1.68009909389126      3.86597111206410      0.94753790994341
  B   -1.28905947758147      1.98458397921336     -1.78083337654124
  F   -1.91693453344375      2.67025031736726     -0.70870235022373
  F   -1.05768056211521      0.64467760594069     -1.35518641558442
  F   -2.06220276886033      2.01522964548294     -2.91119586760130
  F   -0.02911660837339      2.59388289183556     -1.99222893825904
