33
Coordinates from ORCA-job BPyBCN4
  C   -1.50020850331605     -0.81319763024590     -0.03608350335695
  C   -2.75684406854320     -0.45737142740115     -0.47223052026017
  C   -3.13386599491536      0.87897461867528     -0.44165211843796
  C   -2.22734413372570      1.83004583260301      0.00785913586544
  C   -0.98152403234198      1.42551958210658      0.43407049537995
  H   -4.12875182949281      1.17086676197972     -0.73563639132786
  H   -1.15879950256321     -1.83263531013090      0.01563695865201
  H   -3.43911581195933     -1.22758319740245     -0.79029607700427
  H   -2.48946166572654      2.87283772604327      0.06918020891622
  H   -0.24824578567615      2.10019926597808      0.84064159290323
  N   -0.63916061068494      0.12356837541377      0.40676867042063
  C   0.71217000039165     -0.28892010004293      0.85145342612195
  C   1.67380112375489     -0.37555665237576     -0.32259639274724
  H   0.59408411035044     -1.24657421270412      1.35000013427378
  H   1.03194041896365      0.43902850564265      1.59066744683386
  C   3.06475508262483     -0.80398159910120      0.13321903801868
  H   1.72926222539207      0.59366819943184     -0.82233706638453
  H   1.29016773730069     -1.08930522210743     -1.05452035032745
  C   4.04010855380621     -0.92371881299376     -1.03089228226183
  H   2.99232351850224     -1.75964077104264      0.65433524735023
  H   3.44229675724357     -0.08365873291698      0.86036268357417
  H   5.02542311379981     -1.22901265609358     -0.68656698219663
  H   3.69601898817763     -1.66190852121891     -1.75414282665368
  H   4.14819430852510      0.02736223230607     -1.55067819288084
  B   -2.26335178262087     -0.25752499417134      3.83692335767329
  C   -1.68987708274190     -1.57463584136583      3.14780776471493
  C   -1.13388442479197      0.85387562495899      3.67062184011946
  N   -0.30239009076848      1.62500388318140      3.42845735210868
  N   -1.23651981429318     -2.46036087744143      2.55224648140992
  C   -2.62710855721812     -0.50393806775094      5.34802612724920
  C   -3.52377970906319      0.21552322126858      2.99327566575958
  N   -4.38922906994973      0.56672170663930      2.30660233045036
  N   -2.89443346843999     -0.68897090972137      6.45944674604389
