29
Coordinates from ORCA-job BPyBF4
  C   -1.18915699518668     -1.24687622610279     -0.24113139902681
  C   -2.46815070507860     -1.19534216301898     -0.75036938565319
  C   -3.05290419549421      0.04008240848354     -0.98721347840208
  C   -2.33975007610187      1.19454174794223     -0.69774466796874
  C   -1.06503952832808      1.08655839238653     -0.18871787103212
  H   -4.06039270126865      0.10273109788523     -1.36717271974430
  H   -0.68991467877661     -2.16715923170628      0.00585339485743
  H   -2.99997064633570     -2.11494498576560     -0.92752096879610
  H   -2.76989645064860      2.17273647021253     -0.83205917258573
  H   -0.47204950384634      1.93592208796684      0.10038172641657
  N   -0.50544911536398     -0.11891528490563      0.00817628169784
  C   0.87861171718703     -0.19064680446104      0.52799137359810
  C   1.89443064078943      0.03115867339117     -0.57999998476615
  H   0.98400378487609     -1.16181637831758      0.99703970675755
  H   0.94403031876868      0.55151664836671      1.31629274383294
  C   3.31880130299639     -0.03339104281199     -0.03829393181772
  H   1.72426690169804      1.00426979912613     -1.04554136109898
  H   1.76017326436519     -0.72025463666477     -1.36112097244171
  C   4.36342995692200      0.20136601049216     -1.12184657405998
  H   3.48172218756963     -1.00660125626798      0.42723653679539
  H   3.43391687662794      0.70830044149702      0.75335501994870
  H   5.37031958667077      0.15232629379098     -0.71352278197488
  H   4.28602653144797     -0.54701049840127     -1.90974403311635
  H   4.23738748032109      1.18151741189484     -1.58024117843689
  B   -1.57917004503075     -0.03341216628410      2.95554155239407
  F   -1.90808357940573      0.01131791631297      4.28747536105352
  F   -0.79727490862684     -1.18194829256701      2.66130207912185
  F   -2.72537480940598     -0.06755601412008      2.13564193147302
  F   -0.81369761134173      1.11223858164625      2.58871377297463
