25
Coordinates from ORCA-job BPyCl
  C   -1.35365521028282     -0.90662862486709     -0.27990434440685
  C   -2.69950891144033     -0.56371942534241     -0.54120716648131
  C   -3.21548016884558      0.60033781550205     -0.04994366951984
  C   -2.40920630377011      1.43905004953843      0.75146317132129
  C   -1.14867892568656      1.03021667052264      1.06467065348837
  H   -4.23246041376639      0.88264579093460     -0.27413579692197
  H   -0.98632495481067     -1.89956139781406     -0.44802074702713
  H   -3.27002377416167     -1.21539456516197     -1.18097321176611
  H   -2.77536579341927      2.37653387074365      1.13472966928164
  H   -0.48513994342917      1.60086573298435      1.69253466531696
  N   -0.66349610491589     -0.16200849201497      0.62105776466031
  C   0.71952680943791     -0.53839818063416      0.95358751016262
  C   1.74838322064758      0.38040664846132      0.30772788288934
  H   0.85797066629781     -1.55604600622403      0.59978352367341
  H   0.81464961623582     -0.53896729281196      2.03923833641824
  C   3.16663539426661     -0.12561767284030      0.54242834695994
  H   1.64898517912647      1.38803819307631      0.71649694673896
  H   1.53177735940778      0.43140743905776     -0.75795823930660
  C   4.21192286055861      0.79607753761614     -0.07424243969092
  H   3.26231612075120     -1.12395544652652      0.11180664853001
  H   3.35361968649171     -0.22909454851842      1.61419969981289
  H   5.21929091943566      0.41897625764834      0.09019240068084
  H   4.05737322548019      0.88831068520663     -1.14790541934506
  H   4.15466585584057      1.79495816002052      0.35726612948859
  Cl  -0.31952540944944     -0.49062419855687     -2.39973631495764
