33
Coordinates from ORCA-job BPyFSI
  C   -1.71989984577139     -1.06120781096229      0.55060659993751
  C   -3.05123122705976     -1.22878846475517      0.23822163800922
  C   -3.79443015073514     -0.13010440232536     -0.17111937901257
  C   -3.17495745857170      1.10761249793484     -0.28031103929301
  C   -1.84091005300501      1.22381532511590      0.04400843199242
  H   -4.84820326465295     -0.23170982290437     -0.37612866700555
  H   -1.10663439398376     -1.85386689759010      0.94094877829597
  H   -3.49997353171980     -2.19871228398202      0.36905601277927
  H   -3.72198328212518      1.98986115639736     -0.56657484070014
  H   -1.31588895549823      2.16247215721148      0.04789550394043
  N   -1.14488744781669      0.15108774893804      0.46135897329075
  C   0.25379762530186      0.32604644821861      0.91159344949351
  C   1.23696741670926      0.14806253766606     -0.23223704446028
  H   0.41161684587746     -0.39700433448999      1.70582304815275
  H   0.30830973258982      1.31425246006807      1.35847252036239
  C   2.67430507564495      0.33456389463026      0.24294680326453
  H   1.01291681558833      0.86723299352859     -1.02270967497355
  H   1.11691411647527     -0.84711663924943     -0.66544526621086
  C   3.68464012181090      0.14246680092663     -0.88074488261697
  H   2.87990078971717     -0.37145609768099      1.04899462175946
  H   2.78304657221144      1.33161562050881      0.67219651402931
  H   4.70198144282072      0.27898072094278     -0.52141533088852
  H   3.61227543896863     -0.85848312684036     -1.30430009744029
  H   3.51620082595918      0.85770102462907     -1.68486021215880
  S   -2.53509375308903     -0.75613751204062      3.72145933202683
  O   -3.91349344199027     -0.78684727205400      3.34453325739015
  O   -1.70915326555747     -1.88631061264418      3.40563811906884
  N   -1.72412455867315      0.53614530680519      3.31948860886820
  S   -2.30573172621730      1.99686468664455      3.21714989431555
  O   -1.33392790680651      2.78584871538979      2.51074687890186
  O   -3.68211532224877      2.12025363956561      2.85212186954034
  F   -2.54419091842450     -0.68822160955008      5.30217911831759
  F   -2.22936231572843      2.51268315194741      4.71055646102361
