29
Coordinates from ORCA-job BPyNCN2
  C   -1.60441857772339     -0.83021599348396     -0.08130557544333
  C   -2.83897118780816     -0.44581316815054     -0.55856963001828
  C   -3.17425050158122      0.90177489993637     -0.56528216595804
  C   -2.25811710952840      1.83690352611691     -0.10085544179665
  C   -1.03504164335564      1.40643111234407      0.36613255894583
  H   -4.14389393728357      1.21886803707477     -0.91661940160018
  H   -1.29896557473513     -1.85735319073268      0.00387392616717
  H   -3.52966721038836     -1.20357443119345     -0.88824041271909
  H   -2.48859964818321      2.88843782898585     -0.06756925745799
  H   -0.30024955081882      2.06658452122534      0.79035532668867
  N   -0.73011691089291      0.09427130357743      0.36089324351717
  C   0.57884852457467     -0.34501540686451      0.89372437556245
  C   1.63222760028759     -0.40276864311979     -0.20008429118945
  H   0.41032995919156     -1.31494477924122      1.35373513958055
  H   0.83998474733671      0.35967540121678      1.67854934336423
  C   2.98368085975682     -0.83631332166774      0.35776154952704
  H   1.72475285225704      0.57884943921476     -0.66957236604734
  H   1.31286216544164     -1.09879142493802     -0.97856683908796
  C   4.05784396528330     -0.90690770410452     -0.72020867949492
  H   2.87748776072508     -1.81002153866873      0.83824919344064
  H   3.28890406493775     -0.13867528495717      1.13895612629010
  H   5.01254922954943     -1.21924484409947     -0.30316098320294
  H   3.78481084814491     -1.61890375104842     -1.49811645310804
  H   4.20202300191603      0.06392530216953     -1.19275889660018
  N   -2.22803753545602     -0.12905575831722      3.51917476164644
  C   -1.96905436779617     -1.26264403710094      2.92653613224905
  C   -1.40395996247603      0.86906619167880      3.35211433676114
  N   -0.71101382253881      1.80639474509096      3.19656939620543
  N   -1.79609903883668     -2.28914903094316      2.37946398377848
