31
Coordinates from ORCA-job BPyPF6
  C   -1.27820232538436     -1.27844521563319     -0.23279520326960
  C   -2.55936092320651     -1.23217008368634     -0.73593511002956
  C   -3.14208447029970      0.00112455516218     -0.99108054541284
  C   -2.42351814585592      1.15824678337787     -0.72682467093663
  C   -1.14694137413804      1.05498316333877     -0.22081256723595
  H   -4.15190183526668      0.05962830103327     -1.36528132751103
  H   -0.77886670756712     -2.19691669405676      0.02110766608082
  H   -3.09383352358985     -2.15354714150219     -0.89565650914568
  H   -2.85189135737626      2.13512291126784     -0.87490968720823
  H   -0.54991441920717      1.90836458004465      0.04886568710043
  N   -0.59131506873295     -0.14804247030862     -0.00230194829097
  C   0.79471011400892     -0.21771012482226      0.51213314252195
  C   1.80287612847471     -0.03495611360058     -0.61033554333945
  H   0.89756988867540     -1.17851626154798      1.00320881146017
  H   0.87631460306401      0.54416906091019      1.27978899597579
  C   3.23399379923718     -0.09801020325504     -0.08693291644521
  H   1.63473617903101      0.92644802486861     -1.10005131711917
  H   1.65131857233138     -0.80587929714792     -1.36887755837502
  C   4.26197891334184      0.10101322747557     -1.19361035452489
  H   3.39691458091513     -1.06058534903695      0.40014763934248
  H   3.36773065406785      0.66254249309550      0.68353487687330
  H   5.27526843659104      0.05466055051278     -0.80145928517042
  H   4.16556012345060     -0.66647923499195     -1.96070383713984
  H   4.13504110215813      1.07007803691977     -1.67471199953958
  P   -1.84339349287045      0.04734430412904      3.34904414612137
  F   -0.81410606246588     -0.03429697338005      4.56813733357782
  F   -1.00402019427499     -1.14056154377919      2.57335634325391
  F   -2.78811911238975     -1.05961450335442      4.00613115607769
  F   -0.86924020507776      1.15283764441104      2.61095010730559
  F   -2.65306020306830      1.23461127188596      4.04561298950449
  F   -2.83029467457552      0.12862330167049      2.04796748549826
