33
Coordinates from ORCA-job TEPAI
  N   -0.26758381012166      0.95521394211269      0.96803357000371
  C   -0.11048879664911      1.68375822480520      2.27260312098984
  H   -0.01713295645491      2.73640661969577      2.02194105406327
  H   -1.04754497413699      1.55841389024624      2.80853620496757
  C   1.05069737105055      1.26864256095333      3.15794515499907
  H   1.00360701628311      0.20423191439558      3.37980917584092
  H   1.99540511946424      1.45246695583921      2.65234369369836
  C   1.00788914039419      2.06139277942153      4.46200548614115
  H   1.07080037772868      3.13235760358755      4.27452536408031
  H   0.08562260299527      1.87060680442921      5.00878798814410
  H   1.83942676069677      1.78693279426019      5.10580809139902
  C   0.94153594878977      1.17353136310125      0.05417879220815
  H   0.54735364750101      1.12124799875341     -0.95754066831150
  H   1.29043352662798      2.17957988154487      0.26961183368715
  C   2.06070099604286      0.15566627860113      0.14091345575924
  H   2.87088237152663      0.53660372277944     -0.47838326618759
  H   2.45326787336941     -0.00638100895807      1.14002682936970
  H   1.74561821702274     -0.78593930737388     -0.29867276370302
  C   -0.48746477223772     -0.53310911531481      1.16963113467973
  H   0.40428232338032     -0.91490653761119      1.65009111020721
  H   -0.54545748316830     -0.93879362349983      0.15836069019055
  C   -1.71680281893177     -0.90609677029659      1.97162985987409
  H   -2.63989637280719     -0.62965312593245      1.47227699327059
  H   -1.71811111951542     -0.49889666270253      2.98088020995545
  H   -1.71669388229517     -1.99044757127535      2.06007540368569
  C   -1.50006017238433      1.50824673795653      0.25906203896924
  H   -2.30454815811567      1.46709335316750      0.98598455737229
  H   -1.69176397738304      0.80824723739358     -0.55469682608399
  C   -1.35937205767959      2.90855530119874     -0.30020378294565
  H   -2.32962449125405      3.18151101648070     -0.70982244307955
  H   -0.64792991683446      2.94716864491498     -1.11851824672377
  H   -1.09929149797845      3.65741531216307      0.44464284317930
  I   -0.69624603492572     -0.76341721483693     -2.53815665970060
