41
Coordinates from ORCA-job TEPABCN4
  N   0.54209879025256      0.08245644206306      2.59414592847842
  C   1.34903231466311      1.24845356543249      2.04075289057918
  H   1.08882164567892      2.09599366570715      2.66915181571773
  H   2.38914734926296      0.99993977954961      2.22319670649643
  C   1.17270197782361      1.59722079658043      0.57352824356097
  H   1.52220463000385      0.77906573120776     -0.05332122184631
  H   0.13029975608331      1.79428205657773      0.33764140518812
  C   1.99770620721908      2.84589388323172      0.26444216494653
  H   1.66676685065936      3.70004564825136      0.84935831951023
  H   3.05505563102191      2.68392036237877      0.47285484099091
  H   1.90118564647786      3.10576286154335     -0.78639049925571
  C   0.84965404513757     -1.20660815305752      1.85792173201174
  H   1.90971669263779     -1.17124317038762      1.62580647246713
  H   0.69859891626340     -2.00882078892526      2.57477910943703
  C   0.03860243303920     -1.49092599716439      0.60508950626364
  H   0.44492415352335     -2.39648217779577      0.15845126104953
  H   0.10067971470967     -0.70092721391680     -0.13267292849246
  H   -1.00752709386832     -1.67608404982548      0.82459294780539
  C   -0.93044228046965      0.44503011998746      2.53532156019700
  H   -1.00185558591862      1.41998130654468      3.00030664533590
  H   -1.18169825264899      0.56514351823807      1.49055502479505
  C   -1.86776579062579     -0.53095977619090      3.21931256487986
  H   -1.80003793537570     -0.48013044773149      4.30133061921643
  H   -2.88093741999096     -0.24522449452075      2.94572163372851
  H   -1.72210135945456     -1.56176675771859      2.90485320129114
  C   0.91801074365244     -0.08067688494178      4.06071686864046
  H   0.59268126327454      0.83216712800376      4.55345668292037
  H   0.31437106485695     -0.90458269335700      4.42420303191190
  C   2.38249564837642     -0.35551768858558      4.34200751238336
  H   2.76217405912569     -1.22804560926029      3.81600902683907
  H   2.46773602695929     -0.55635003303460      5.40775390534162
  H   3.01996845044166      0.49578843252866      4.12767625723730
  B   -0.94240337585143      4.77664275945843      3.06450370316295
  C   -0.53831254700254      3.73238492559727      4.20143419030943
  C   -1.50414284785626      3.89386077302708      1.86223131028171
  N   -1.84738906296877      3.16971788824110      1.02407315916743
  N   -0.21967709443867      2.89607747510876      4.93906224894200
  C   -2.02943296933984      5.78746420449085      3.59309335328162
  C   0.37377109121338      5.51015509188368      2.57765809133029
  N   -2.83193283441123      6.52190709559032      3.99046208600814
  N   1.36331834786346      5.98192842519026      2.20214162788997
