37
Coordinates from ORCA-job TEPANCN2
  N   0.59233619031163      0.18999547907304      2.95520339034119
  C   1.39372787719287      1.39453278500818      2.47471825490606
  H   1.11439355422184      2.22802687060444      3.11423299987069
  H   2.43332766279477      1.14707685956258      2.66763684562415
  C   1.24513258793018      1.79336954320950      1.01788896545299
  H   1.56506770222595      0.98226483271255      0.36499452272475
  H   0.20933992399372      2.01926115898006      0.77797720662903
  C   2.11859856907339      3.01895518609178      0.75282001859359
  H   1.82063293090380      3.84882032030741      1.38824815879573
  H   3.17052804888497      2.80067714001181      0.93985670405231
  H   2.02173780272637      3.32639981085959     -0.28546459326143
  C   0.67738173339053     -0.97347365504942      1.98366187006813
  H   1.69493062617558     -0.97353769038938      1.60527879168628
  H   0.54626168750737     -1.86966942550954      2.58542043623066
  C   -0.33172166669909     -0.98650211746124      0.84571314633424
  H   -0.02332038774103     -1.77019583429350      0.15603023713487
  H   -0.38884339082243     -0.05388033698413      0.29938509677779
  H   -1.33154240645533     -1.22623023029699      1.19146711829669
  C   -0.87395490460254      0.53769509786142      3.17522805960477
  H   -1.36804329581749     -0.41923557401956      3.33115949831771
  H   -1.24272887531517      0.96158135735648      2.24628906847370
  C   -1.16168085119964      1.47018048647281      4.33489504944805
  H   -2.21203835996749      1.74327854946262      4.25504591238662
  H   -0.59655401481543      2.39744560762688      4.29070088445605
  H   -1.01665213365303      0.99877691046594      5.30332891573898
  C   1.17018564046695     -0.24397372497673      4.28587302714194
  H   1.20227430006920      0.64968475949098      4.89960634523948
  H   0.43918997355674     -0.92462265452751      4.71649856314712
  C   2.53574608430112     -0.90460207874186      4.24389815146585
  H   3.30468179597655     -0.26207642783946      3.82617037551082
  H   2.53184175605901     -1.84481124519936      3.70123777583046
  H   2.82101785912618     -1.12127779876391      5.27113243424868
  N   -1.70929584230749      4.31243830243841      1.81133858905951
  C   -0.66894101990717      4.34725507678597      2.60034841891572
  C   -1.99607781714107      3.17461694969283      1.23892584345354
  N   -2.27786206088018      2.16172803421384      0.71182258850128
  N   0.25563272043592      4.40974767576348      3.32391132880206
